@<TRIPOS>MOLECULE
2_4_dinitrophenol
17 17
SMALL
****
@<TRIPOS>ATOM
    1 O        -2.432   -1.753    0.001 O       0 UNL -0.645
    2 O        -1.941    2.296    0.001 O       0 UNL -0.291
    3 O        -3.288    0.562    0.000 O       0 UNL -0.305
    4 O         3.680   -0.339    0.002 O       0 UNL -0.278
    5 O         2.827    1.684   -0.000 O       0 UNL -0.337
    6 N        -2.136    1.057    0.000 N       0 UNL  0.441
    7 N         2.693    0.437    0.000 N       0 UNL  0.434
    8 C        -1.013    0.184   -0.001 C       0 UNL -0.036
    9 C         1.385   -0.115   -0.001 C       0 UNL  0.030
   10 C         0.272    0.727   -0.001 C       0 UNL -0.120
   11 C        -1.186   -1.200   -0.000 C       0 UNL  0.329
   12 C         1.212   -1.499   -0.001 C       0 UNL -0.144
   13 C        -0.074   -2.041   -0.000 C       0 UNL -0.239
   14 H         0.410    1.806   -0.001 H       0 UNL  0.236
   15 H         2.055   -2.185   -0.000 H       0 UNL  0.226
   16 H        -0.194   -3.122    0.000 H       0 UNL  0.223
   17 H        -2.349   -2.722    0.001 H       0 UNL  0.475
@<TRIPOS>BOND
    1     1    11  1
    2     1    17  1
    3     2     6  1
    4     3     6  2
    5     4     7  1
    6     5     7  2
    7     6     8  1
    8     7     9  1
    9     8    10  1
   10     8    11  2
   11     9    10  2
   12     9    12  1
   13    10    14  1
   14    11    13  1
   15    12    13  2
   16    12    15  1
   17    13    16  1
