@<TRIPOS>MOLECULE
ethanol
9 8
SMALL
USER_CHARGES
****
@<TRIPOS>ATOM
    1 O        -1.171    0.300    0.000 O       0 UNL -0.727
    2 C        -0.046   -0.567    0.000 C       0 UNL -0.051
    3 C         1.218    0.267    0.000 C       0 UNL -0.593
    4 H        -0.096   -1.212    0.882 H       0 UNL  0.167
    5 H        -0.095   -1.194   -0.895 H       0 UNL  0.183
    6 H         2.105   -0.372   -0.018 H       0 UNL  0.185
    7 H         1.243    0.931   -0.870 H       0 UNL  0.205
    8 H         1.262    0.905    0.889 H       0 UNL  0.191
    9 H        -1.129    0.836    0.810 H       0 UNL  0.439
@<TRIPOS>BOND
    1     1     2  1
    2     1     9  1
    3     2     3  1
    4     2     4  1
    5     2     5  1
    6     3     6  1
    7     3     7  1
    8     3     8  1
